*SPEF "IEEE 1481-1998"
*DESIGN "encoder"
*DATE "Tue Apr 29 02:56:45 2025"
*VENDOR "Cadence Design Systems, Inc."
*PROGRAM "Innovus"
*VERSION "20.10-p004_1"
*DESIGN_FLOW "COUPLING C" "PIN_CAP NONE" "NAME_SCOPE LOCAL"
*DIVIDER /
*DELIMITER :
*BUS_DELIMITER []
*T_UNIT 1 NS
*C_UNIT 1 PF
*R_UNIT 1 OHM
*L_UNIT 1 HENRY

// MMMC spef file for corner 'CWORST_T'

*NAME_MAP

*1 FE_OFN1_N
*2 FE_OFN0_P
*3 data
*4 reset
*5 clk
*6 P
*7 N
*8 par
*9 pre
*10 N75
*11 N76
*12 N77
*13 N78
*14 N79
*15 N84
*16 N85
*17 N86
*18 N88
*19 N89
*20 N90
*21 N91
*22 n3
*23 n4
*24 n5
*25 n6
*26 n7
*27 n8
*28 n9
*29 n10
*30 n11
*31 n12
*32 n13
*33 n14
*34 n15
*35 n16
*36 n17
*37 n18
*38 n19
*39 n20
*40 n21
*41 n22
*42 n23
*43 n24
*44 n25
*45 n26
*46 n27
*47 n28
*48 n29
*49 pout[3]
*50 pout[2]
*51 pout[1]
*52 pout[0]
*53 nout[3]
*54 nout[2]
*55 nout[1]
*56 nout[0]
*57 arr[2]
*58 arr[1]
*59 arr[0]
*60 FE_OFC1_N
*61 FE_OFC0_P
*62 U7
*63 pout_reg_3_
*64 par_reg
*65 arr_reg_0_
*66 arr_reg_2_
*67 arr_reg_1_
*68 pout_reg_0_
*69 nout_reg_0_
*70 pre_reg
*71 nout_reg_3_
*72 pout_reg_2_
*73 pout_reg_1_
*74 nout_reg_2_
*75 nout_reg_1_
*76 P_reg
*77 N_reg
*78 U44
*79 U45
*80 U46
*81 U47
*82 U48
*83 U49
*84 U50
*85 U51
*86 U52
*87 U53
*88 U54
*89 U55
*90 U56
*91 U57
*92 U58
*93 U59
*94 U60
*95 U61
*96 U62
*97 U63
*98 U64
*99 U65
*100 U66
*101 U67
*102 U68
*103 U69
*104 U70
*105 U71
*106 U72
*107 U73
*108 U74
*109 U75
*110 U76
*111 U77
*112 U78
*113 U79
*114 U80
*115 U81


*PORTS

*3 I *C 0 1
*4 I *C 0 11
*5 I *C 3 0
*6 O *C 560 1
*7 O *C 560 11


*D_NET *1 0.0464132

*CONN
*I *77:Q O *C 155.4 83.72 *L 0 *D DFQD1
*I *60:I I *C 473.48 87.08 *L 0.00914 *D CKBD6

*CAP
1 *77:Q 0.000104426
2 *60:I 4.3046e-05
3 *1:2 0.0174137
4 *1:3 0.0145084
5 *1:4 0.00821567
6 *1:5 0.000117712
7 *1:6 0.000117712
8 *1:7 0.000240739
9 *1:8 0.00531007
10 *1:9 0.000101503
11 *1:10 0.000240739

*RES
1 *1:9 *60:I 0.328325
2 *1:10 *1:9 9.07827
3 *1:7 *1:10 1.35158
4 *1:8 *1:7 9.07827
5 *1:4 *1:8 35.1794
6 *1:2 *1:4 21.5178
7 *1:3 *1:2 96.4893
8 *1:6 *1:3 9.07827
9 *1:5 *1:6 0.540338
10 *77:Q *1:5 9.07827
*END

*D_NET *2 0.046243

*CONN
*I *76:Q O *C 156.52 86.52 *L 0 *D DFQD1
*I *61:I I *C 473.48 83.16 *L 0.00914 *D CKBD6

*CAP
1 *76:Q 0.00010456
2 *61:I 0.000602667
3 *2:2 0.017217
4 *2:3 0.00765577
5 *2:5 8.45941e-05
6 *2:6 0.0143855
7 *2:7 0.00066099
8 *2:8 0.000353877
9 *2:9 0.000353877
10 *2:10 0.00482423

*RES
1 *2:7 *61:I 4.60391
2 *2:8 *2:7 9.07827
3 *2:8 *2:9 2.16135
4 *2:10 *2:9 9.07827
5 *2:3 *2:10 31.6679
6 *2:2 *2:3 20.9775
7 *2:6 *2:2 96.4893
8 *2:5 *2:6 9.07827
9 *2:5 *76:Q 9.07827
10 *2:4 *2:5 0.266488
*END

*D_NET *3 0.0283123

*CONN
*P *3 I *C 0 1 *L 0
*I *110:I I *C 82.04 102.76 *L 0.00545 *D INVD1
*I *91:A2 I *C 84.84 87.64 *L 0.00415 *D NR4D0

*CAP
1 *3 0.000575712
2 *110:I 0.000139822
3 *91:A2 0.000104587
4 *3:3 0.00241535
5 *3:4 0.00140651
6 *3:5 0.000705232
7 *3:6 0.00291842
8 *3:7 0.00283205
9 *3:8 0.00489228
10 *3:9 8.54012e-05
11 *3:10 0.00488063
12 *3:11 0.000117203
13 *3:12 0.000467243
14 *3:13 0.000198199
15 *3:14 0.00103109
16 *3:15 8.52519e-05
17 *3:16 8.52519e-05
18 *3:17 0.000467243
19 *3:7 *5:23 0.000711534
20 *3:6 *5:24 0.000711513
21 *3:7 *4:23 0.000866879
22 *3:6 *4 0.000866932
23 *3:10 *4:24 0.000873945
24 *3:8 *4:25 0.000873945

*RES
1 *3:15 *91:A2 9.07843
2 *3:15 *3:16 0.270285
3 *3:17 *3:16 9.07843
4 *3:13 *110:I 1.64423
5 *3:12 *3:17 2.70148
6 *3:14 *3:13 9.07843
7 *3:3 *3:12 9.07843
8 *3:3 *3:14 7.02468
9 *3:4 *3:3 9.72616
10 *3:11 *3:4 9.07843
11 *3:10 *3:11 0.328983
12 *3:8 *3:10 44.7308
13 *3:9 *3:8 9.07843
14 *3:7 *3:9 0.270285
15 *3:6 *3:7 27.8277
16 *3:5 *3:6 0.810172
17 *3 *3:5 4.24538
*END

*D_NET *4 0.0500181

*CONN
*P *4 I *C 0 11 *L 0
*I *115:A1 I *C 122.36 87.08 *L 0.00466 *D NR2D1
*I *113:A1 I *C 149.8 93.24 *L 0.00466 *D NR2D1
*I *112:A1 I *C 135.24 83.16 *L 0.00466 *D NR2D1
*I *103:B1 I *C 139.72 113.4 *L 0.00468 *D INR2D1
*I *100:B I *C 89.88 107.24 *L 0.00509 *D AOI31D1
*I *99:B I *C 121.24 113.4 *L 0.00509 *D AOI31D1
*I *98:A2 I *C 103.88 102.76 *L 0.00412 *D NR3D0
*I *93:B1 I *C 101.08 113.4 *L 0.00468 *D INR2D1

*CAP
1 *4 0.00323165
2 *115:A1 0.000104564
3 *113:A1 0.000104564
4 *112:A1 0.000104564
5 *103:B1 0.000104564
6 *100:B 0.00065541
7 *99:B 4.59211e-05
8 *98:A2 0.000104564
9 *93:B1 0.000104564
10 *4:9 0.000437905
11 *4:10 0.000633898
12 *4:11 0.000713743
13 *4:12 0.0010746
14 *4:13 0.00107366
15 *4:14 0.000104357
16 *4:15 0.00112807
17 *4:16 0.000497686
18 *4:17 0.000168067
19 *4:18 0.000168998
20 *4:19 0.000914596
21 *4:20 0.000741874
22 *4:21 0.000730911
23 *4:22 0.000730911
24 *4:23 0.00327488
25 *4:24 0.00677802
26 *4:25 0.00677802
27 *4:26 0.000473794
28 *4:27 0.000277492
29 *4:28 0.00188132
30 *4:29 0.00310826
31 *4:30 0.000568843
32 *4:31 0.000568843
33 *4:34 8.54298e-05
34 *4:35 8.54298e-05
35 *4:36 0.00150433
36 *4:37 0.000128145
37 *4:38 0.000130834
38 *4:39 0.000131765
39 *4:40 0.000120595
40 *4:41 0.000120595
41 *4:42 8.4499e-05
42 *4:43 0.00110045
43 *4:44 0.000151829
44 *4:45 0.00015276
45 *4:46 0.0002415
46 *4:47 0.000240569
47 *4:48 0.00160621
48 *4:49 0.00013766
49 *4:50 0.00013766
50 *4:51 0.000527989
51 *4:52 0.000490963
52 *4:53 0.000653549
53 *4:54 8.4499e-05
54 *4:55 0.000490963
55 *4:9 *35:12 0.000136643
56 *4:10 *35:11 0.000136654
57 *4:9 *35:8 1.42921e-05
58 *4:10 *35:7 1.42921e-05
59 *4:11 *35:9 0.000218395
60 *100:B *35:5 0.000218395
61 *4:23 *3:7 0.000866879
62 *4 *3:6 0.000866932
63 *4:24 *3:10 0.000873945
64 *4:25 *3:8 0.000873945

*RES
1 *4 *4:23 28.329
2 *4:23 *4:34 0.270365
3 *4:25 *4:34 9.07824
4 *4:25 *4:24 59.8603
5 *4:13 *4:24 9.07824
6 *4:13 *4:12 7.29438
7 *4:12 *4:22 0.270365
8 *4:22 *4:21 4.59255
9 *4:38 *98:A2 9.07824
10 *4:20 *4:21 0.270365
11 *4:38 *4:39 0.270365
12 *100:B *4:11 6.24945
13 *4:20 *4:19 4.3231
14 *4:19 *4:39 0.270365
15 *4:35 *4:11 9.07824
16 *4:26 *4:19 1.08055
17 *4:14 *99:B 0.328822
18 *4:35 *4:10 0.270365
19 *4:26 *4:10 1.89164
20 *4:37 *93:B1 9.07824
21 *4:41 *4:14 9.07824
22 *4:10 *4:9 2.16109
23 *4:9 *4:37 0.54073
24 *4:50 *103:B1 9.07824
25 *4:40 *4:41 0.54073
26 *4:36 *4:9 9.07824
27 *4:49 *4:50 0.54073
28 *4:29 *4:40 9.07824
29 *4:36 *4:29 9.45639
30 *4:28 *4:49 9.07824
31 *4:29 *4:28 9.18602
32 *4:28 *4:27 1.62128
33 *4:17 *4:27 9.07824
34 *4:18 *4:17 0.810182
35 *4:54 *113:A1 9.07824
36 *4:33 *4:54 0.266712
37 *4:30 *4:18 0.270365
38 *4:55 *4:54 9.07824
39 *4:31 *4:30 3.78237
40 *4:44 *112:A1 9.07824
41 *4:52 *4:55 3.24164
42 *4:31 *4:53 0.270365
43 *4:44 *4:45 0.54073
44 *4:15 *4:52 9.07824
45 *4:15 *4:53 4.3231
46 *4:45 *4:46 0.270365
47 *4:16 *4:15 2.97219
48 *4:46 *4:47 1.35091
49 *4:51 *4:16 9.07824
50 *4:48 *4:47 9.07824
51 *4:48 *4:51 3.51201
52 *4:43 *4:48 6.4842
53 *4:42 *115:A1 9.07824
54 *4:42 *4:43 9.07824
55 *4:32 *4:42 0.266712
*END

*D_NET *5 0.0635621

*CONN
*P *5 I *C 3 0 *L 0
*I *77:CP I *C 145.32 83.16 *L 0.00326 *D DFQD1
*I *76:CP I *C 146.44 87.08 *L 0.00326 *D DFQD1
*I *75:CP I *C 101.08 123.48 *L 0.00326 *D DFQD1
*I *74:CP I *C 107.8 127.4 *L 0.00326 *D DFQD1
*I *73:CP I *C 157.08 123.48 *L 0.00326 *D DFQD1
*I *72:CP I *C 157.08 97.16 *L 0.00326 *D DFQD1
*I *71:CP I *C 123.48 123.48 *L 0.00326 *D DFQD1
*I *70:CP I *C 106.68 83.16 *L 0.00326 *D DFQD1
*I *69:CP I *C 92.12 113.4 *L 0.00326 *D DFQD1
*I *68:CP I *C 129.08 117.32 *L 0.00326 *D DFQD1
*I *67:CP I *C 105 83.16 *L 0.00326 *D DFQD1
*I *66:CP I *C 92.12 83.16 *L 0.00326 *D DFQD1
*I *65:CP I *C 92.68 97.16 *L 0.00326 *D DFQD1
*I *64:CP I *C 118.44 83.16 *L 0.00326 *D DFQD1
*I *63:CP I *C 148.12 103.32 *L 0.00326 *D DFKCSND1

*CAP
1 *5 0.000129524
2 *77:CP 0.000104568
3 *76:CP 0.000104568
4 *75:CP 0.000104568
5 *74:CP 0.000104568
6 *73:CP 0.000104568
7 *72:CP 0.000104568
8 *71:CP 0.000104568
9 *70:CP 0.000104568
10 *69:CP 0.000104568
11 *68:CP 0.000104568
12 *67:CP 0.000104568
13 *66:CP 0.000104568
14 *65:CP 0.000104568
15 *64:CP 0.000104568
16 *63:CP 0.000104568
17 *5:16 0.000159752
18 *5:17 0.000159752
19 *5:18 0.000451399
20 *5:19 0.000984344
21 *5:20 0.0057587
22 *5:21 0.00283783
23 *5:22 0.00289196
24 *5:23 0.00357517
25 *5:24 0.00366242
26 *5:25 0.00102292
27 *5:26 0.000724682
28 *5:27 0.000724682
29 *5:28 0.000242967
30 *5:29 0.000242967
31 *5:30 0.000752186
32 *5:31 0.000752186
33 *5:32 0.00164804
34 *5:33 8.40937e-05
35 *5:34 0.000501574
36 *5:35 0.000501574
37 *5:51 0.00137212
38 *5:52 0.00137212
39 *5:53 0.00182959
40 *5:54 0.00509474
41 *5:55 0.00182959
42 *5:56 8.4533e-05
43 *5:57 8.4533e-05
44 *5:58 8.4533e-05
45 *5:59 0.00123583
46 *5:60 0.00249618
47 *5:61 0.00164839
48 *5:62 0.00038901
49 *5:63 8.4533e-05
50 *5:64 0.000429519
51 *5:65 0.000761588
52 *5:66 0.000355267
53 *5:67 8.4533e-05
54 *5:68 8.4533e-05
55 *5:69 8.4533e-05
56 *5:70 8.4533e-05
57 *5:71 8.4533e-05
58 *5:72 0.00203819
59 *5:73 0.000384089
60 *5:74 0.000384089
61 *5:75 0.000474246
62 *5:76 8.4533e-05
63 *5:77 0.000301314
64 *5:78 0.000116255
65 *5:79 0.00124304
66 *5:80 0.000963958
67 *5:81 8.4533e-05
68 *5:82 0.000116255
69 *5:83 0.000837773
70 *5:84 0.000993571
71 *5:85 8.4533e-05
72 *5:86 8.4533e-05
73 *5:87 0.00270558
74 *5:88 8.4533e-05
75 *5:89 8.4533e-05
76 *5:90 0.00173425
77 *5:21 *8:14 3.63583e-05
78 *5:22 *8:12 3.63642e-05
79 *5:22 *8:7 3.63583e-05
80 *5:25 *8:4 3.63642e-05
81 *5:21 *8:11 9.5248e-05
82 *5:22 *8:6 9.52539e-05
83 *5:22 *8:11 2.53995e-05
84 *5:25 *8:6 2.53995e-05
85 *5:23 *3:7 0.000711531
86 *5:24 *3:6 0.000711509

*RES
1 *5:73 *68:CP 9.07871
2 *5:16 *63:CP 9.07871
3 *5:73 *5:74 2.43174
4 *5:69 *74:CP 9.07871
5 *5:42 *5:69 0.26693
6 *5:17 *5:16 0.81058
7 *5:88 *73:CP 9.07871
8 *5:49 *5:88 0.26693
9 *5:63 *75:CP 9.07871
10 *5:39 *5:63 0.26693
11 *5:71 *71:CP 9.07871
12 *5:44 *5:71 0.26693
13 *5:75 *5:74 9.07871
14 *5:34 *5:69 9.07871
15 *5:81 *76:CP 9.07871
16 *5:46 *5:81 0.26693
17 *5:28 *5:17 9.07871
18 *5:85 *72:CP 9.07871
19 *5:47 *5:85 0.26693
20 *5:89 *5:88 9.07871
21 *5:50 *5:89 0.26693
22 *5:33 *5:63 9.07871
23 *5:72 *5:71 9.07871
24 *5:72 *5:75 2.70176
25 *5:35 *5:34 2.97178
26 *5:82 *5:81 9.07871
27 *5:29 *5:28 1.35062
28 *5:86 *5:85 9.07871
29 *5:48 *5:86 0.26693
30 *5:90 *5:89 9.07871
31 *5:33 *5:32 0.270022
32 *5:32 *5:72 10.5365
33 *5:66 *5:35 9.07871
34 *5:78 *5:82 0.540559
35 *5:80 *5:29 9.07871
36 *5:87 *5:86 9.07871
37 *5:87 *5:90 12.4277
38 *5 *5:24 0.81058
39 *5:57 *69:CP 9.07871
40 *5:37 *5:57 0.26693
41 *5:65 *5:32 9.07871
42 *5:65 *5:66 2.1612
43 *5:79 *5:78 9.07871
44 *5:79 *5:80 6.75415
45 *5:84 *5:87 6.75415
46 *5:24 *5:23 28.0977
47 *5:58 *65:CP 9.07871
48 *5:38 *5:58 0.26693
49 *5:31 *5:57 9.07871
50 *5:64 *5:65 2.43174
51 *5:76 *77:CP 9.07871
52 *5:45 *5:76 0.26693
53 *5:77 *5:79 1.89118
54 *5:83 *5:84 9.07871
55 *5:51 *5:23 9.07871
56 *5:27 *5:58 9.07871
57 *5:31 *5:30 4.32292
58 *5:62 *5:64 0.270022
59 *5:70 *64:CP 9.07871
60 *5:43 *5:70 0.26693
61 *5:21 *5:76 9.07871
62 *5:21 *5:77 9.07871
63 *5:21 *5:83 5.67355
64 *5:51 *5:52 8.37531
65 *5:27 *5:26 4.05239
66 *5:61 *5:30 9.07871
67 *5:61 *5:62 2.1612
68 *5:68 *70:CP 9.07871
69 *5:41 *5:68 0.26693
70 *5:22 *5:70 9.07871
71 *5:22 *5:21 12.9683
72 *5:53 *5:52 9.07871
73 *5:60 *5:26 9.07871
74 *5:60 *5:61 7.56473
75 *5:67 *67:CP 9.07871
76 *5:40 *5:67 0.26693
77 *5:25 *5:68 9.07871
78 *5:25 *5:22 5.67355
79 *5:53 *5:55 11.6171
80 *5:59 *5:60 7.02417
81 *5:18 *5:67 9.07871
82 *5:18 *5:25 0.81058
83 *5:54 *5:55 9.07871
84 *5:19 *5:59 9.07871
85 *5:19 *5:18 1.89118
86 *5:54 *5:20 33.7713
87 *5:20 *5:19 4.32292
88 *5:56 *66:CP 9.07871
89 *5:56 *5:20 9.07871
90 *5:36 *5:56 0.26693
*END

*D_NET *6 0.0245459

*CONN
*I *61:Z O *C 477.4 83.16 *L 0 *D CKBD6
*P *6 O *C 560 1 *L 1

*CAP
1 *61:Z 0.000104608
2 *6 8.45017e-05
3 *6:2 0.0060605
4 *6:3 0.000117209
5 *6:4 0.00509197
6 *6:5 0.00509197
7 *6:6 0.00607217
8 *6:5 *7:2 0.000961495
9 *6:4 *7:3 0.000961465

*RES
1 *6:5 *61:Z 9.07866
2 *6:4 *6:5 38.9049
3 *6:6 *6 9.07866
4 *6:3 *6:4 9.07866
5 *6:2 *6:6 48.3487
6 *6:2 *6:3 0.329033
*END

*D_NET *7 0.0235925

*CONN
*I *60:Z O *C 477.4 87.08 *L 0 *D CKBD6
*P *7 O *C 560 11 *L 1

*CAP
1 *60:Z 0.000104581
2 *7 8.45185e-05
3 *7:2 0.00473803
4 *7:3 0.00473803
5 *7:4 0.00593772
6 *7:5 0.0001172
7 *7:6 0.00594943
8 *7:2 *6:5 0.000961495
9 *7:3 *6:4 0.000961465

*RES
1 *7:2 *60:Z 9.07839
2 *7:3 *7:2 37.0131
3 *7:6 *7 9.07839
4 *7:5 *7:3 9.07839
5 *7:4 *7:6 47.362
6 *7:4 *7:5 0.328822
*END

*D_NET *8 0.00601449

*CONN
*I *101:A2 I *C 122.36 93.24 *L 0.00361 *D CKXOR2D1
*I *64:Q O *C 128.52 83.72 *L 0 *D DFQD1

*CAP
1 *101:A2 0.000104566
2 *64:Q 0.000104566
3 *8:2 0.000681973
4 *8:3 0.000681973
5 *8:4 0.000149324
6 *8:5 0.000721324
7 *8:6 0.00077537
8 *8:7 0.000150235
9 *8:8 0.000152175
10 *8:9 0.000721324
11 *8:10 0.000152175
12 *8:11 0.00077537
13 *8:12 0.000150235
14 *8:13 7.89035e-05
15 *8:14 0.000149324
16 *8:15 7.89035e-05
17 *8:14 *5:21 3.63577e-05
18 *8:12 *5:22 3.63636e-05
19 *8:7 *5:22 3.63577e-05
20 *8:4 *5:25 3.63636e-05
21 *8:11 *5:21 9.52466e-05
22 *8:6 *5:22 9.52525e-05
23 *8:11 *5:22 2.53991e-05
24 *8:6 *5:25 2.53991e-05

*RES
1 *8:15 *64:Q 9.07853
2 *8:13 *8:15 0.270128
3 *8:14 *8:13 9.07853
4 *8:10 *101:A2 9.07853
5 *8:12 *8:14 0.810524
6 *8:8 *8:10 0.810524
7 *8:11 *8:12 0.270128
8 *8:9 *8:8 9.07853
9 *8:6 *8:11 5.13327
10 *8:5 *8:9 3.78235
11 *8:6 *8:7 0.270128
12 *8:2 *8:5 9.07853
13 *8:4 *8:7 0.810524
14 *8:3 *8:2 4.32275
15 *8:3 *8:4 9.07853
*END

*D_NET *9 0.0127855

*CONN
*I *114:B1 I *C 135.24 87.08 *L 0.00511 *D AOI22D1
*I *111:I I *C 122.36 97.72 *L 0.00545 *D INVD1
*I *107:A1 I *C 101.08 97.16 *L 0.00467 *D AOI31D1
*I *92:A2 I *C 107.8 97.72 *L 0.00508 *D AOI21D1
*I *70:Q O *C 116.76 83.72 *L 0 *D DFQD1

*CAP
1 *114:B1 0.000104566
2 *111:I 0.000218069
3 *107:A1 0.000104566
4 *92:A2 0.000233697
5 *70:Q 0.000104566
6 *9:5 0.000292079
7 *9:6 0.000276452
8 *9:7 0.000128232
9 *9:8 0.000128232
10 *9:9 0.000449919
11 *9:10 0.000449902
12 *9:11 0.000645936
13 *9:12 0.000645021
14 *9:13 0.00109068
15 *9:14 0.00109068
16 *9:15 8.52273e-05
17 *9:16 8.52273e-05
18 *9:17 8.52439e-05
19 *9:18 8.52439e-05
20 *9:19 0.00045854
21 *9:20 0.000606926
22 *9:21 0.000172468
23 *9:22 0.000177578
24 *9:23 0.000487215
25 *9:24 0.000332821
26 *9:25 0.000456942
27 *9:26 0.000456942
28 *9:27 8.55102e-05
29 *9:28 8.64255e-05
30 *9:29 0.000185683
31 *9:30 0.000186581
32 *9:31 0.000201693
33 *9:32 0.000201676
34 *9:33 0.000356154
35 *9:34 0.000356154
36 *9:35 0.000397428
37 *9:36 0.00054197
38 *9:37 0.000167708
39 *9:38 0.000167708
40 *9:39 0.00016681
41 *9:40 0.000115534
42 *9:41 0.000115534

*RES
1 *9:18 *114:B1 9.07853
2 *9:18 *9:17 0.270128
3 *9:29 *9:17 9.07853
4 *9:30 *9:29 0.810524
5 *9:16 *70:Q 9.07853
6 *9:30 *9:13 0.270128
7 *9:16 *9:15 0.270128
8 *9:14 *9:13 5.9438
9 *9:9 *9:15 9.07853
10 *9:11 *9:14 0.270128
11 *9:10 *9:9 1.35092
12 *9:12 *9:11 3.51222
13 *9:35 *9:10 9.07853
14 *9:6 *111:I 1.64446
15 *9:36 *9:12 9.07853
16 *9:35 *9:36 2.16131
17 *9:41 *9:6 9.07853
18 *9:36 *9:37 0.810524
19 *9:40 *9:41 0.540396
20 *9:33 *9:37 0.270128
21 *9:27 *9:40 9.07853
22 *9:33 *9:34 2.16131
23 *9:28 *9:27 0.270128
24 *9:34 *9:38 0.270128
25 *9:19 *9:28 0.270128
26 *9:38 *9:39 0.810524
27 *9:20 *9:19 2.43157
28 *9:20 *9:39 9.07853
29 *9:21 *9:20 0.810524
30 *9:5 *92:A2 1.64446
31 *9:25 *9:21 0.270128
32 *9:31 *9:5 9.07853
33 *9:26 *9:25 2.7017
34 *9:32 *9:31 0.810524
35 *9:26 *9:22 0.270128
36 *9:23 *9:32 9.07853
37 *9:23 *9:22 0.810524
38 *9:7 *107:A1 9.07853
39 *9:24 *9:23 1.89118
40 *9:8 *9:7 0.540396
41 *9:8 *9:24 9.07853
*END

*D_NET *10 0.000903282

*CONN
*I *113:ZN O *C 150.36 93.8 *L 0 *D NR2D1
*I *76:D I *C 149.24 87.64 *L 0.00564 *D DFQD1

*CAP
1 *113:ZN 8.99081e-05
2 *76:D 0.000104572
3 *10:2 0.00027418
4 *10:3 0.000160441
5 *10:4 0.00027418

*RES
1 *10:3 *113:ZN 0.657867
2 *10:4 *10:3 9.07853
3 *10:2 *10:4 1.62105
4 *76:D *10:2 9.07853
*END

*D_NET *11 0.00213092

*CONN
*I *112:ZN O *C 135.8 83.72 *L 0 *D NR2D1
*I *77:D I *C 148.12 82.6 *L 0.00564 *D DFQD1

*CAP
1 *112:ZN 0.000645683
2 *77:D 8.60953e-05
3 *11:2 0.00070405
4 *11:3 0.000269233
5 *11:4 0.000156624
6 *11:5 0.000269233

*RES
1 *11:4 *77:D 0.657867
2 *11:5 *11:4 9.07853
3 *11:3 *11:5 1.35092
4 *11:2 *11:3 9.07853
5 *112:ZN *11:2 4.93352
*END

*D_NET *12 0.00417098

*CONN
*I *90:ZN O *C 92.12 104.44 *L 0 *D ND2D1
*I *65:D I *C 89.88 97.72 *L 0.00564 *D DFQD1

*CAP
1 *90:ZN 0.000224006
2 *65:D 8.60865e-05
3 *12:2 0.000217957
4 *12:3 0.000217967
5 *12:4 0.000355678
6 *12:5 0.000355678
7 *12:6 0.000157941
8 *12:7 0.000146272
9 *12:8 0.000270704
10 *12:9 0.000261279
11 *12:10 0.000262173
12 *12:11 0.00015662
13 *12:12 7.8906e-05
14 *12:13 7.8906e-05
15 *12:14 0.000649949
16 *12:15 0.000650863

*RES
1 *90:ZN *12:8 1.64446
2 *12:8 *12:5 0.328864
3 *12:5 *12:4 2.30233
4 *12:7 *12:4 0.328864
5 *12:7 *12:6 0.657867
6 *12:2 *12:6 9.07853
7 *12:3 *12:2 1.35092
8 *12:9 *12:3 9.07853
9 *12:10 *12:9 1.08065
10 *12:15 *12:10 0.270128
11 *12:14 *12:15 3.51222
12 *12:13 *12:14 9.07853
13 *12:12 *12:13 0.270128
14 *12:11 *12:12 9.07853
15 *65:D *12:11 0.657867
*END

*D_NET *13 0.00087082

*CONN
*I *105:ZN O *C 102.76 85.96 *L 0 *D IND2D1
*I *67:D I *C 102.2 82.6 *L 0.00564 *D DFQD1

*CAP
1 *105:ZN 6.03207e-05
2 *67:D 0.00010457
3 *13:2 0.000287537
4 *13:3 0.000130851
5 *13:4 0.000287541

*RES
1 *13:3 *105:ZN 0.328864
2 *13:4 *13:3 9.07853
3 *13:2 *13:4 1.62105
4 *67:D *13:2 9.07853
*END

*D_NET *14 0.00154684

*CONN
*I *104:ZN O *C 93.24 85.96 *L 0 *D IND2D1
*I *66:D I *C 89.32 82.6 *L 0.00564 *D DFQD1

*CAP
1 *104:ZN 0.00040807
2 *66:D 0.000104569
3 *14:2 0.000283885
4 *14:3 0.000466439
5 *14:4 0.000283885

*RES
1 *14:3 *104:ZN 2.30233
2 *14:4 *14:3 9.07853
3 *14:2 *14:4 1.62105
4 *66:D *14:2 9.07853
*END

*D_NET *15 0.00330728

*CONN
*I *99:ZN O *C 124.6 111.72 *L 0 *D AOI31D1
*I *68:D I *C 131.88 117.88 *L 0.00564 *D DFQD1

*CAP
1 *99:ZN 0.000798046
2 *68:D 0.000104571
3 *15:2 0.000856422
4 *15:3 0.000115536
5 *15:4 0.000292936
6 *15:5 0.000115536
7 *15:6 0.000365647
8 *15:7 0.000365647
9 *15:8 0.000292936

*RES
1 *15:5 *68:D 9.07853
2 *15:3 *15:5 0.540396
3 *15:4 *15:3 9.07853
4 *15:4 *15:8 1.89118
5 *15:7 *15:8 9.07853
6 *15:6 *15:7 2.16131
7 *15:2 *15:6 9.07853
8 *99:ZN *15:2 6.57811
*END

*D_NET *16 0.000805301

*CONN
*I *109:Z O *C 153.72 116.2 *L 0 *D AN3D1
*I *73:D I *C 154.28 122.92 *L 0.00564 *D DFQD1

*CAP
1 *109:Z 4.49598e-05
2 *73:D 0.00010457
3 *16:2 0.000103331
4 *16:3 0.00027622
5 *16:4 0.00027622

*RES
1 *16:4 *73:D 9.07853
2 *16:3 *16:4 1.62105
3 *16:2 *16:3 9.07853
4 *109:Z *16:2 0.328864
*END

*D_NET *17 0.00150055

*CONN
*I *108:Z O *C 153.72 106.12 *L 0 *D AN3D1
*I *72:D I *C 154.28 97.72 *L 0.00564 *D DFQD1

*CAP
1 *108:Z 0.000104566
2 *72:D 0.000104566
3 *17:2 7.98127e-05
4 *17:3 7.88959e-05
5 *17:4 0.000565902
6 *17:5 0.00056681

*RES
1 *17:4 *72:D 9.07853
2 *17:4 *17:5 3.51222
3 *17:3 *108:Z 9.07853
4 *17:2 *17:5 0.270128
5 *17:2 *17:3 0.270128
*END

*D_NET *18 0.00372617

*CONN
*I *100:ZN O *C 86.52 108.92 *L 0 *D AOI31D1
*I *69:D I *C 89.32 112.84 *L 0.00564 *D DFQD1

*CAP
1 *100:ZN 0.000134881
2 *69:D 0.000104568
3 *18:2 0.000136034
4 *18:3 0.000239586
5 *18:4 0.000239586
6 *18:5 0.00081282
7 *18:6 0.000391074
8 *18:7 0.000124363
9 *18:8 0.000391074
10 *18:9 0.000181578
11 *18:10 7.88945e-05
12 *18:11 0.00081282
13 *18:12 7.88945e-05

*RES
1 *18:12 *69:D 9.07853
2 *18:10 *18:12 0.270128
3 *18:11 *18:10 9.07853
4 *18:9 *100:ZN 0.986731
5 *18:5 *18:11 4.86301
6 *18:8 *18:9 0.328864
7 *18:4 *18:5 9.07853
8 *18:6 *18:8 2.63119
9 *18:3 *18:4 1.35092
10 *18:6 *18:7 0.328864
11 *18:2 *18:3 9.07853
12 *18:2 *18:7 0.657867
*END

*D_NET *19 0.00238112

*CONN
*I *95:Z O *C 93.24 116.2 *L 0 *D AN3D1
*I *75:D I *C 98.28 122.92 *L 0.00564 *D DFQD1

*CAP
1 *95:Z 0.00013488
2 *75:D 8.60909e-05
3 *19:2 0.00039107
4 *19:3 0.00018158
5 *19:4 0.00039107
6 *19:5 0.00013661
7 *19:6 0.0001483
8 *19:7 0.000156619
9 *19:8 0.00010422
10 *19:9 0.00013661
11 *19:10 0.000117229
12 *19:11 0.000176377
13 *19:12 0.000220458

*RES
1 *75:D *19:7 0.657867
2 *19:8 *19:7 9.07853
3 *19:6 *19:8 0.540396
4 *19:6 *19:12 0.540396
5 *19:11 *19:12 0.810524
6 *19:10 *19:11 9.07853
7 *19:9 *19:10 0.328864
8 *19:5 *19:9 0.657867
9 *19:4 *19:5 0.328864
10 *19:2 *19:4 2.63119
11 *19:2 *19:3 0.328864
12 *95:Z *19:3 0.986731
*END

*D_NET *20 0.00290975

*CONN
*I *94:Z O *C 94.92 126.28 *L 0 *D AN3D1
*I *74:D I *C 110.6 127.96 *L 0.00564 *D DFQD1

*CAP
1 *94:Z 0.000903626
2 *74:D 8.60925e-05
3 *20:3 0.00096199
4 *20:4 8.45072e-05
5 *20:5 0.000279562
6 *20:6 7.88998e-05
7 *20:7 0.000279562
8 *20:8 0.000156625
9 *20:9 7.88998e-05

*RES
1 *20:8 *74:D 0.657867
2 *20:9 *20:8 9.07853
3 *20:6 *20:9 0.270128
4 *20:7 *20:6 9.07853
5 *20:5 *20:7 1.35092
6 *94:Z *20:3 6.90698
7 *20:4 *20:5 9.07853
8 *20:4 *20:3 9.07853
9 *20:2 *20:4 0.266804
*END

*D_NET *21 0.00252296

*CONN
*I *71:D I *C 126.28 122.92 *L 0.00564 *D DFQD1
*I *62:Z O *C 115.64 116.76 *L 0 *D OA21D1

*CAP
1 *71:D 8.60895e-05
2 *62:Z 0.00013488
3 *21:2 0.00056323
4 *21:3 0.000181581
5 *21:4 0.00056323
6 *21:5 0.000136607
7 *21:6 0.000148278
8 *21:7 0.000276222
9 *21:8 0.000156623
10 *21:9 0.000276222

*RES
1 *21:8 *71:D 0.657867
2 *21:9 *21:8 9.07853
3 *21:7 *21:9 1.62105
4 *21:6 *21:7 9.07853
5 *21:5 *21:6 0.657867
6 *21:4 *21:5 0.328864
7 *21:2 *21:4 3.94679
8 *21:2 *21:3 0.328864
9 *62:Z *21:3 0.986731
*END

*D_NET *22 0.00452145

*CONN
*I *98:A1 I *C 103.32 103.32 *L 0.00373 *D NR3D0
*I *82:A1 I *C 112.84 103.32 *L 0.00472 *D OAI21D1
*I *81:A1 I *C 119.56 107.24 *L 0.00474 *D ND2D1
*I *80:ZN O *C 110.04 106.12 *L 0 *D INVD1

*CAP
1 *98:A1 4.67066e-05
2 *82:A1 0.000104572
3 *81:A1 0.000104572
4 *80:ZN 0.000104572
5 *22:4 0.000541771
6 *22:5 0.000541771
7 *22:7 0.000117231
8 *22:8 0.000114885
9 *22:9 0.000470103
10 *22:10 0.000223893
11 *22:11 8.77999e-05
12 *22:12 0.000540031
13 *22:13 0.000320906
14 *22:14 0.000559072
15 *22:15 8.45069e-05
16 *22:16 0.000559072

*RES
1 *22:5 *98:A1 0.328864
2 *22:5 *22:4 3.94679
3 *22:4 *22:7 0.328864
4 *22:8 *22:7 9.07853
5 *22:10 *80:ZN 9.07853
6 *22:11 *82:A1 9.07853
7 *22:8 *22:9 0.540396
8 *22:9 *22:10 1.08065
9 *22:11 *22:12 0.270128
10 *22:9 *22:12 1.35092
11 *22:12 *22:13 1.62105
12 *22:14 *22:13 9.07853
13 *22:14 *22:16 3.2421
14 *22:15 *81:A1 9.07853
15 *22:15 *22:16 9.07853
16 *22:6 *22:15 0.266804
*END

*D_NET *23 0.0128208

*CONN
*I *100:A1 I *C 88.2 107.24 *L 0.00467 *D AOI31D1
*I *95:A2 I *C 91 118.44 *L 0.00295 *D AN3D1
*I *94:A2 I *C 92.68 128.52 *L 0.00295 *D AN3D1
*I *82:B I *C 112.28 102.76 *L 0.00515 *D OAI21D1
*I *78:ZN O *C 105.56 114.52 *L 0 *D INVD1

*CAP
1 *100:A1 0.000104581
2 *95:A2 4.30435e-05
3 *94:A2 4.30435e-05
4 *82:B 4.30435e-05
5 *78:ZN 0.000269751
6 *23:5 0.000647598
7 *23:6 0.000647598
8 *23:7 0.000319435
9 *23:8 0.000630233
10 *23:9 0.000564377
11 *23:10 0.000453066
12 *23:11 0.000543497
13 *23:12 0.000388325
14 *23:13 0.000292823
15 *23:14 0.000303937
16 *23:15 0.000289646
17 *23:16 0.000849912
18 *23:17 0.000539114
19 *23:18 0.000848277
20 *23:19 0.000848277
21 *23:21 8.45178e-05
22 *23:22 0.000776638
23 *23:23 7.89023e-05
24 *23:24 0.000101416
25 *23:25 7.89023e-05
26 *23:26 0.00071501
27 *23:27 0.000101416
28 *23:28 0.000777546
29 *23:29 0.000328111
30 *23:30 0.00071501
31 *23:31 0.000183146
32 *23:32 0.00021064

*RES
1 *94:A2 *23:27 0.328864
2 *95:A2 *23:24 0.328864
3 *23:5 *23:27 9.07853
4 *23:31 *82:B 0.328864
5 *23:25 *23:24 9.07853
6 *23:6 *23:5 3.2421
7 *23:31 *23:32 0.986731
8 *23:23 *23:25 0.270128
9 *23:26 *23:6 9.07853
10 *23:14 *23:32 9.07853
11 *23:19 *23:23 9.07853
12 *23:26 *23:30 4.05262
13 *23:14 *23:13 1.62105
14 *23:19 *23:18 4.86301
15 *23:7 *23:30 9.07853
16 *23:15 *23:13 9.07853
17 *23:8 *23:18 9.07853
18 *23:8 *23:7 1.89118
19 *23:29 *78:ZN 1.97346
20 *23:9 *23:15 1.62105
21 *23:16 *23:8 1.89118
22 *23:16 *23:29 9.07853
23 *23:10 *23:9 1.89118
24 *23:17 *23:16 2.97183
25 *23:11 *23:10 0.810524
26 *23:11 *23:17 9.07853
27 *23:12 *23:11 2.16131
28 *23:28 *23:12 0.270128
29 *23:22 *23:28 4.59288
30 *23:21 *100:A1 9.07853
31 *23:21 *23:22 9.07853
32 *23:20 *23:21 0.266804
*END

*D_NET *24 0.00125956

*CONN
*I *86:ZN O *C 117.32 96.04 *L 0 *D INVD1
*I *85:A1 I *C 120.12 103.32 *L 0.00472 *D OAI21D1

*CAP
1 *86:ZN 0.000228791
2 *85:A1 0.000104571
3 *24:2 0.000287161
4 *24:3 0.00031952
5 *24:4 0.00031952

*RES
1 *24:4 *85:A1 9.07853
2 *24:3 *24:4 1.89118
3 *24:2 *24:3 9.07853
4 *86:ZN *24:2 1.64446
*END

*D_NET *25 0.00521999

*CONN
*I *114:B2 I *C 134.12 87.64 *L 0.00508 *D AOI22D1
*I *96:A2 I *C 133 102.76 *L 0.00514 *D AOI22D1
*I *89:ZN O *C 129.64 94.36 *L 0 *D INVD1

*CAP
1 *114:B2 0.000344244
2 *96:A2 0.000104574
3 *89:ZN 0.000688078
4 *25:3 0.000546084
5 *25:4 0.000557203
6 *25:5 0.000425005
7 *25:6 0.000425005
8 *25:7 0.00040261
9 *25:8 0.000283704
10 *25:9 0.000283704
11 *25:10 0.00064188
12 *25:11 0.000258946
13 *25:12 0.000258946

*RES
1 *25:3 *96:A2 9.07853
2 *25:4 *25:3 3.2421
3 *25:6 *25:4 9.07853
4 *25:6 *25:5 1.97346
5 *25:12 *25:5 9.07853
6 *25:11 *25:12 1.08065
7 *25:10 *25:11 9.07853
8 *89:ZN *25:10 3.94679
9 *25:9 *89:ZN 9.07853
10 *25:8 *25:9 1.62105
11 *25:7 *114:B2 2.63119
12 *25:7 *25:8 9.07853
*END

*D_NET *26 0.0036215

*CONN
*I *111:ZN O *C 123.48 96.04 *L 0 *D INVD1
*I *96:A1 I *C 134.68 102.76 *L 0.00497 *D AOI22D1
*I *85:A2 I *C 121.8 102.76 *L 0.00497 *D OAI21D1

*CAP
1 *111:ZN 0.00092553
2 *96:A1 0.000104578
3 *85:A2 0.00012911
4 *26:3 0.0002772
5 *26:4 0.000187464
6 *26:5 0.0002772
7 *26:6 0.00087932
8 *26:7 0.000420559
9 *26:8 0.000420559

*RES
1 *26:8 *96:A1 9.07853
2 *26:7 *26:8 2.16131
3 *26:6 *26:7 9.07853
4 *111:ZN *26:6 6.24911
5 *26:3 *111:ZN 9.07853
6 *26:3 *26:5 1.62105
7 *26:4 *26:5 9.07853
8 *85:A2 *26:4 0.986731
*END

*D_NET *27 0.00943719

*CONN
*I *110:ZN O *C 83.16 104.44 *L 0 *D INVD1
*I *100:A2 I *C 87.64 107.24 *L 0.00506 *D AOI31D1
*I *99:A2 I *C 123.48 113.4 *L 0.00506 *D AOI31D1
*I *90:A2 I *C 93.8 102.76 *L 0.00503 *D ND2D1

*CAP
1 *110:ZN 0.000359665
2 *100:A2 0.000104574
3 *99:A2 0.000104574
4 *90:A2 0.000104574
5 *27:4 0.00123659
6 *27:5 0.0012375
7 *27:6 0.000637981
8 *27:7 0.000637981
9 *27:8 0.000331793
10 *27:9 0.000331793
11 *27:10 0.000176934
12 *27:11 0.000177821
13 *27:12 0.000177519
14 *27:13 0.000176613
15 *27:14 7.89121e-05
16 *27:15 0.000476513
17 *27:16 0.000418032
18 *27:17 0.00033083
19 *27:18 0.000274181
20 *27:19 7.89121e-05
21 *27:20 7.89121e-05
22 *27:21 0.000712532
23 *27:22 0.000259169
24 *27:23 0.000466656
25 *27:24 0.000466656

*RES
1 *27:8 *99:A2 9.07853
2 *27:9 *27:8 1.62105
3 *27:10 *27:9 9.07853
4 *27:11 *27:10 0.810524
5 *27:11 *27:6 0.270128
6 *27:7 *27:6 3.78235
7 *27:12 *27:7 0.270128
8 *27:13 *27:12 0.810524
9 *27:24 *27:13 9.07853
10 *27:23 *27:24 2.7017
11 *27:4 *27:23 9.07853
12 *27:19 *90:A2 9.07853
13 *27:5 *27:4 7.83497
14 *27:19 *27:20 0.270128
15 *27:22 *27:5 0.270128
16 *27:21 *27:20 9.07853
17 *27:21 *27:22 1.35092
18 *27:15 *27:21 2.7017
19 *27:14 *27:15 9.07853
20 *27:18 *100:A2 9.07853
21 *27:14 *27:17 0.270128
22 *27:17 *27:18 1.62105
23 *27:16 *27:17 9.07853
24 *110:ZN *27:16 2.63119
*END

*D_NET *28 0.00372343

*CONN
*I *115:A2 I *C 123.48 87.64 *L 0.00494 *D NR2D1
*I *101:Z O *C 121.24 93.8 *L 0 *D CKXOR2D1
*I *87:B1 I *C 111.72 93.24 *L 0.00468 *D INR2D1
*I *83:A2 I *C 118.44 87.64 *L 0.00503 *D ND2D1

*CAP
1 *115:A2 0.000104569
2 *101:Z 0.000329364
3 *87:B1 0.000104569
4 *83:A2 0.000104569
5 *28:4 0.000215477
6 *28:5 0.000128231
7 *28:6 0.000431439
8 *28:7 0.000171766
9 *28:8 0.000349889
10 *28:9 0.000610018
11 *28:10 0.000349889
12 *28:11 0.000218568
13 *28:12 0.000131321
14 *28:13 0.000193258
15 *28:14 0.000280505

*RES
1 *28:13 *115:A2 9.07853
2 *28:13 *28:14 1.08065
3 *28:11 *28:14 0.810524
4 *28:11 *28:12 0.540396
5 *28:8 *83:A2 9.07853
6 *101:Z *28:12 9.07853
7 *28:8 *28:10 1.89118
8 *28:9 *28:10 9.07853
9 *28:9 *101:Z 1.64446
10 *28:6 *28:9 2.96019
11 *28:5 *87:B1 9.07853
12 *28:7 *28:6 9.07853
13 *28:4 *28:5 0.540396
14 *28:4 *28:7 0.810524
*END

*D_NET *29 0.00199786

*CONN
*I *107:ZN O *C 102.76 98.84 *L 0 *D AOI31D1
*I *106:A1 I *C 107.8 93.24 *L 0.00474 *D ND2D1

*CAP
1 *107:ZN 0.000373929
2 *106:A1 0.000104568
3 *29:2 0.000238371
4 *29:3 0.000432301
5 *29:4 0.000194287
6 *29:5 0.00030516
7 *29:6 0.000349238

*RES
1 *29:5 *106:A1 9.07853
2 *29:5 *29:6 1.62105
3 *29:2 *29:6 0.540396
4 *29:2 *29:4 0.810524
5 *29:3 *29:4 9.07853
6 *107:ZN *29:3 2.30233
*END

*D_NET *30 0.0140095

*CONN
*I *106:A2 I *C 106.68 92.68 *L 0.00503 *D ND2D1
*I *95:A1 I *C 89.88 117.88 *L 0.00274 *D AN3D1
*I *94:A1 I *C 91.56 127.96 *L 0.00274 *D AN3D1
*I *93:ZN O *C 101.64 113.96 *L 0 *D INR2D1
*I *62:B I *C 113.96 117.88 *L 0.00547 *D OA21D1

*CAP
1 *106:A2 4.30439e-05
2 *95:A1 0.000922133
3 *94:A1 0.000946643
4 *93:ZN 0.000104565
5 *62:B 0.000104565
6 *30:5 0.000429642
7 *30:6 0.000429642
8 *30:7 0.000125907
9 *30:8 0.000146584
10 *30:9 0.00020784
11 *30:10 0.00020784
12 *30:11 0.00105971
13 *30:12 0.00103903
14 *30:13 0.000553101
15 *30:14 0.000896447
16 *30:15 0.00124323
17 *30:16 0.00087594
18 *30:17 0.000727952
19 *30:18 0.00100501
20 *30:19 0.000727952
21 *30:20 0.000146812
22 *30:21 0.00089988
23 *30:22 0.000146812
24 *30:23 0.000176083
25 *30:24 0.000176102
26 *30:25 0.000101416
27 *30:13 *36:9 6.76929e-05
28 *30:14 *36:10 6.76843e-05
29 *30:14 *36:9 2.46125e-05
30 *30:15 *36:10 2.46125e-05
31 *30:11 *36:7 8.59537e-06
32 *30:12 *36:8 8.604e-06
33 *30:11 *36:14 7.13778e-05
34 *30:12 *36:5 7.13778e-05
35 *30:11 *36:5 0.000110506
36 *30:12 *36:6 0.000110497

*RES
1 *30:25 *106:A2 0.328864
2 *30:8 *30:25 9.07853
3 *30:8 *30:7 0.810524
4 *30:6 *30:7 0.135064
5 *30:6 *30:5 2.43157
6 *30:9 *62:B 9.07853
7 *30:5 *30:12 0.135064
8 *30:10 *30:9 1.08065
9 *30:12 *30:11 7.83497
10 *30:13 *30:10 9.07853
11 *30:23 *93:ZN 9.07853
12 *30:14 *30:11 9.07853
13 *30:14 *30:13 4.05262
14 *30:23 *30:24 0.810524
15 *30:15 *30:14 2.43157
16 *30:15 *30:24 9.07853
17 *30:21 *30:15 5.13327
18 *30:20 *30:21 9.07853
19 *30:18 *94:A1 7.23584
20 *30:20 *30:22 1.08065
21 *30:19 *30:18 9.07853
22 *95:A1 *30:22 9.07853
23 *30:17 *30:19 4.86301
24 *30:16 *30:17 9.07853
25 *30:16 *95:A1 6.24911
*END

*D_NET *31 0.0105885

*CONN
*I *107:A2 I *C 101.64 97.16 *L 0.00506 *D AOI31D1
*I *101:A1 I *C 125.72 93.24 *L 0.00676 *D CKXOR2D1
*I *97:ZN O *C 128.52 106.68 *L 0 *D NR2D1